LAMMPS (7 Feb 2024 - Update 1)
units          metal
boundary       p p p
atom_style     atomic

#change the name of the file
read_data      data.graphene_MD
Reading data file ...
  orthogonal box = (0 0 -3) to (48 27.712813 5)
  reading atoms ...
  400 atoms

pair_style     airebo 3.0 1 0
pair_coeff     * * CH.airebo  C
Reading airebo potential file CH.airebo with DATE: 2011-10-25

group          g_C1 type 1
400 atoms in group g_C1
mass           1 12.011

#lx/(3*X) X=number of unit cell in the X direction
variable       latx equal lx/(3*10)

thermo          50

thermo_style    custom step temp press pe v_latx vol

fix             1 all nve
fix             2 all box/relax x 0.0 y 0.0

dump            mydump all cfg 50 track_*.cfg mass type xs ys zs id
dump_modify     mydump element C

#dump            dumpout all atom 1 dump.lammpstrj

minimize        1e-7 1e-8 10000 100000
 (src/min.cpp:219)
Step          Temp          Press          PotEng         v_latx         Volume
0   0             -218607.81     -2772.3022      1.6            10641.72
Averages over the last 14 of 27 rows, steps 650 to 1271:
Temp Press PotEng v_latx Volume
0 -91760.6 -3092.37 1.44434 8675.99
Loop time of 4.03848 on 1 procs for 1271 steps with 400 atoms

Minimization stats:
  Stopping criterion = energy tolerance
  Energy initial, next-to-last, final =
  Force two-norm initial, final = 3078.1776 0.00077049135
  Force max component initial, final = 2176.6002 0.00054480659
  Final line search alpha, max atom move = 6.8553344e-05 3.7348313e-08
  Iterations, force evaluations = 1271 1272
