LAMMPS (7 Feb 2024 - Update 1)
units          metal
boundary       p p p
atom_style     atomic

#change the name of the file
read_data      data.graphene_MD
Reading data file ...
  orthogonal box = (0 0 -3) to (36 20.78461 5)
  reading atoms ...
  400 atoms

pair_style     airebo 3.0 1 0
pair_coeff     * * CH.airebo  C
Reading airebo potential file CH.airebo with DATE: 2011-10-25

group          g_C1 type 1
400 atoms in group g_C1
mass           1 12.011

#lx/(3*X) X=number of unit cell in the X direction
variable       latx equal lx/(3*10)

thermo          50

thermo_style    custom step temp press pe v_latx vol

fix             1 all nve
fix             2 all box/relax x 0.0 y 0.0

dump            mydump all cfg 50 track_*.cfg mass type xs ys zs id
dump_modify     mydump element C

#dump            dumpout all atom 1 dump.lammpstrj

minimize        1e-7 1e-8 10000 100000
 (src/min.cpp:219)
Step          Temp          Press          PotEng         v_latx         Volume
0   0              1342094.2     -2178.8379      1.2            5985.9676
Averages over the last 17 of 34 rows, steps 850 to 1640:
Temp Press PotEng v_latx Volume
0 166655 -3077.95 1.34993 7578.72
Loop time of 6.96335 on 1 procs for 1640 steps with 400 atoms

Minimization stats:
  Stopping criterion = energy tolerance
  Energy initial, next-to-last, final =
  Force two-norm initial, final = 10640.36 0.00033634817
  Force max component initial, final = 7523.871 0.0002377819
  Final line search alpha, max atom move = 0.00010557385 2.510355e-08
  Iterations, force evaluations = 1640 1641
